<?xml version="1.0" encoding="utf-8"?>
<!DOCTYPE population SYSTEM "http://www.matsim.org/files/dtd/population_v6.dtd">

<population>
<person id="20001">
<plan selected="yes">
<activity type="h" x="271626.88" y="2774775.98" end_time="14:00:00" >
</activity>
<leg mode="car">
</leg>
<activity type="w" x="281553.37" y="2764676.509" end_time="16:30:00" >
</activity>
<leg mode="walk">
</leg>
<activity type="w" x="281690.08" y="2764633.52" end_time="17:10:00" >
</activity>
<leg mode="car">
</leg>
<activity type="w" x="271626.88" y="2774775.98">
</activity>
</plan>
</person>
<person id="20002">
<plan selected="yes">
<activity type="h" x="281420.32" y="2767584.149" end_time="8:30:00" >
</activity>
<leg mode="motorcycle">
</leg>
<activity type="w" x="279327.299" y="2764119.04" end_time="12:40:00" >
</activity>
<leg mode="walk">
</leg>
<activity type="w" x="281690.08" y="2764633.52" end_time="13:20:00" >
</activity>
<leg mode="walk">
</leg>
<activity type="w" x="279528.63" y="2764287.759" end_time="18:50:00" >
</activity>
<leg mode="motorcycle">
</leg>
<activity type="w" x="281420.32" y="2767584.149">
</activity>
</plan>
</person>
<person id="20003">
<plan selected="yes">
<activity type="h" x="280498.9" y="2771227.31" end_time="16:30:00" >
</activity>
<leg mode="motorcycle">
</leg>
<activity type="w" x="281690.08" y="2764633.52" end_time="19:20:00" >
</activity>
<leg mode="motorcycle">
</leg>
<activity type="w" x="280498.9" y="2771227.31">
</activity>
</plan>
</person>
<person id="20004">
<plan selected="yes">
<activity type="h" x="281251.02" y="2767510.04" end_time="10:00:00" >
</activity>
<leg mode="motorcycle">
</leg>
<activity type="w" x="281690.08" y="2764633.52" end_time="20:00:00" >
</activity>
<leg mode="motorcycle">
</leg>
<activity type="w" x="281251.02" y="2767510.04">
</activity>
</plan>
</person>
<person id="20005">
<plan selected="yes">
<activity type="h" x="281451.84" y="2768515.109" end_time="10:10:00" >
</activity>
<leg mode="motorcycle">
</leg>
<activity type="w" x="281483.03" y="2764660.779" end_time="15:00:00" >
</activity>
<leg mode="walk">
</leg>
<activity type="w" x="281690.08" y="2764633.52" end_time="15:15:00" >
</activity>
<leg mode="walk">
</leg>
<activity type="w" x="281483.03" y="2764660.779" end_time="22:05:00" >
</activity>
<leg mode="motorcycle">
</leg>
<activity type="w" x="281515.229" y="2768540.339">
</activity>
</plan>
</person>
<person id="20006">
<plan selected="yes">
<activity type="h" x="280274.38" y="2767138.18" end_time="8:10:00" >
</activity>
<leg mode="motorcycle">
</leg>
<activity type="w" x="282161.07" y="2764788.22" end_time="12:30:00" >
</activity>
<leg mode="walk">
</leg>
<activity type="w" x="281690.08" y="2764633.52" end_time="13:20:00" >
</activity>
<leg mode="walk">
</leg>
<activity type="w" x="282161.07" y="2764788.22" end_time="19:20:00" >
</activity>
<leg mode="motorcycle">
</leg>
<activity type="w" x="280274.38" y="2767138.18">
</activity>
</plan>
</person>
<person id="20007">
<plan selected="yes">
<activity type="h" x="278045.03" y="2765018.899" end_time="12:00:00" >
</activity>
<leg mode="bike">
</leg>
<activity type="w" x="280317.179" y="2765149.839" end_time="18:00:00" >
</activity>
<leg mode="bike">
</leg>
<activity type="w" x="278045.03" y="2765018.899">
</activity>
</plan>
</person>
<person id="20008">
<plan selected="yes">
<activity type="h" x="280259.239" y="2761579.81" end_time="7:30:00" >
</activity>
<leg mode="pt">
</leg>
<activity type="w" x="273461.12" y="2764736.46" end_time="14:00:00" >
</activity>
<leg mode="pt">
</leg>
<activity type="w" x="272570.219" y="2761663.069" end_time="18:00:00" >
</activity>
<leg mode="pt">
</leg>
<activity type="w" x="271699.82" y="2761322.569" end_time="23:00:00" >
</activity>
<leg mode="pt">
</leg>
<activity type="w" x="280259.239" y="2761579.81">
</activity>
</plan>
</person>
<person id="20009">
<plan selected="yes">
<activity type="h" x="279274.349" y="2770427.899" end_time="7:00:00" >
</activity>
<leg mode="motorcycle">
</leg>
<activity type="w" x="274269.26" y="2761067.21" end_time="17:00:00" >
</activity>
<leg mode="motorcycle">
</leg>
<activity type="w" x="279274.349" y="2770427.899">
</activity>
</plan>
</person>
<person id="20010">
<plan selected="yes">
<activity type="h" x="278045.03" y="2765018.899" end_time="9:52:00" >
</activity>
<leg mode="car">
</leg>
<activity type="w" x="274269.26" y="2761067.21" end_time="12:28:00" >
</activity>
<leg mode="walk">
</leg>
<activity type="w" x="272539.479" y="2760237.75" end_time="13:56:00" >
</activity>
<leg mode="walk">
</leg>
<activity type="w" x="274269.26" y="2761067.21" end_time="16:06:00" >
</activity>
<leg mode="car">
</leg>
<activity type="w" x="278045.03" y="2765018.899">
</activity>
</plan>
</person>
<person id="20011">
<plan selected="yes">
<activity type="h" x="279788.9" y="2764867.14" end_time="8:09:00" >
</activity>
<leg mode="motorcycle">
</leg>
<activity type="w" x="279788.9" y="2764867.14" end_time="8:34:00" >
</activity>
<leg mode="motorcycle">
</leg>
<activity type="w" x="281483.03" y="2764660.779" end_time="12:10:00" >
</activity>
<leg mode="motorcycle">
</leg>
<activity type="w" x="281483.03" y="2764660.779" end_time="13:02:00" >
</activity>
<leg mode="motorcycle">
</leg>
<activity type="w" x="281483.03" y="2764660.779" end_time="18:05:00" >
</activity>
<leg mode="motorcycle">
</leg>
<activity type="w" x="279788.9" y="2764867.14">
</activity>
</plan>
</person>
<person id="20013">
<plan selected="yes">
<activity type="h" x="280764.95" y="2765342.02" end_time="10:45:00" >
</activity>
<leg mode="motorcycle">
</leg>
<activity type="w" x="281361.039" y="2764532.96" end_time="10:47:00" >
</activity>
<leg mode="motorcycle">
</leg>
<activity type="w" x="280764.95" y="2765342.02" end_time="15:40:00" >
</activity>
<leg mode="motorcycle">
</leg>
<activity type="w" x="281863.159" y="2764718.319" end_time="15:50:00" >
</activity>
<leg mode="motorcycle">
</leg>
<activity type="w" x="280764.95" y="2765342.02">
</activity>
</plan>
</person>
<person id="20014">
<plan selected="yes">
<activity type="h" x="281945.15" y="2765292.379" end_time="10:30:00" >
</activity>
<leg mode="motorcycle">
</leg>
<activity type="w" x="282095.45" y="2764826" end_time="14:56:00" >
</activity>
<leg mode="walk">
</leg>
<activity type="w" x="282095.45" y="2764826" end_time="15:01:00" >
</activity>
<leg mode="walk">
</leg>
<activity type="w" x="282095.45" y="2764826" end_time="22:26:00" >
</activity>
<leg mode="motorcycle">
</leg>
<activity type="w" x="281945.15" y="2765292.379">
</activity>
</plan>
</person>
<person id="20015">
<plan selected="yes">
<activity type="h" x="278983.38" y="2764395.149" end_time="8:30:00" >
</activity>
<leg mode="motorcycle">
</leg>
<activity type="w" x="282095.45" y="2764826" end_time="12:10:00" >
</activity>
<leg mode="walk">
</leg>
<activity type="w" x="282095.45" y="2764826" end_time="12:53:00" >
</activity>
<leg mode="walk">
</leg>
<activity type="w" x="282095.45" y="2764826" end_time="18:18:00" >
</activity>
<leg mode="motorcycle">
</leg>
<activity type="w" x="278983.38" y="2764395.149">
</activity>
</plan>
</person>
<person id="20016">
<plan selected="yes">
<activity type="h" x="279618.96" y="2764897.439" end_time="7:40:00" >
</activity>
<leg mode="motorcycle">
</leg>
<activity type="w" x="280962.56" y="2763327.91" end_time="17:16:00" >
</activity>
<leg mode="motorcycle">
</leg>
<activity type="w" x="279657.57" y="2764876.669" end_time="17:37:00" >
</activity>
<leg mode="motorcycle">
</leg>
<activity type="w" x="279618.96" y="2764897.439" end_time="20:32:00" >
</activity>
<leg mode="motorcycle">
</leg>
<activity type="w" x="279657.57" y="2764876.669" end_time="20:38:00" >
</activity>
<leg mode="motorcycle">
</leg>
<activity type="w" x="279618.96" y="2764897.439">
</activity>
</plan>
</person>
<person id="20019">
<plan selected="yes">
<activity type="h" x="279477.77" y="2764763.33" end_time="11:30:00" >
</activity>
<leg mode="motorcycle">
</leg>
<activity type="w" x="281885.109" y="2765478.45" end_time="20:10:00" >
</activity>
<leg mode="motorcycle">
</leg>
<activity type="w" x="279477.77" y="2764763.33" end_time="21:05:00" >
</activity>
<leg mode="motorcycle">
</leg>
<activity type="w" x="281690.08" y="2764633.52" end_time="22:30:00" >
</activity>
<leg mode="motorcycle">
</leg>
<activity type="w" x="279477.77" y="2764763.33">
</activity>
</plan>
</person>
<person id="20020">
<plan selected="yes">
<activity type="h" x="282129.78" y="2764636.54" end_time="8:10:00" >
</activity>
<leg mode="car">
</leg>
<activity type="w" x="279788.9" y="2764867.14" end_time="12:10:00" >
</activity>
<leg mode="walk">
</leg>
<activity type="w" x="279946.34" y="2764858.52" end_time="13:02:00" >
</activity>
<leg mode="walk">
</leg>
<activity type="w" x="279788.9" y="2764867.14" end_time="18:06:00" >
</activity>
<leg mode="car">
</leg>
<activity type="w" x="282129.78" y="2764636.54">
</activity>
</plan>
</person>
<person id="20021">
<plan selected="yes">
<activity type="h" x="282627.09" y="2765423.45" end_time="9:00:00" >
</activity>
<leg mode="motorcycle">
</leg>
<activity type="w" x="279564.53" y="2761578.689" end_time="19:00:00" >
</activity>
<leg mode="motorcycle">
</leg>
<activity type="w" x="282627.09" y="2765423.45">
</activity>
</plan>
</person>
<person id="20022">
<plan selected="yes">
<activity type="h" x="282627.09" y="2765423.45" end_time="8:30:00" >
</activity>
<leg mode="motorcycle">
</leg>
<activity type="w" x="282607.58" y="2765251.33" end_time="12:05:00" >
</activity>
<leg mode="motorcycle">
</leg>
<activity type="w" x="282607.58" y="2765251.33" end_time="18:00:00" >
</activity>
<leg mode="motorcycle">
</leg>
<activity type="w" x="282607.58" y="2765251.33">
</activity>
</plan>
</person>
<person id="20023">
<plan selected="yes">
<activity type="h" x="281517.14" y="2765372.439" end_time="8:30:00" >
</activity>
<leg mode="motorcycle">
</leg>
<activity type="w" x="282095.45" y="2764826" end_time="20:00:00" >
</activity>
<leg mode="motorcycle">
</leg>
<activity type="w" x="281517.14" y="2765372.439">
</activity>
</plan>
</person>
<person id="20025">
<plan selected="yes">
<activity type="h" x="279788.9" y="2764867.14" end_time="8:30:00" >
</activity>
<leg mode="car">
</leg>
<activity type="w" x="280668.2" y="2764685.779" end_time="18:00:00" >
</activity>
<leg mode="car">
</leg>
<activity type="w" x="279788.9" y="2764867.14">
</activity>
</plan>
</person>
<person id="20026">
<plan selected="yes">
<activity type="h" x="281885.109" y="2765478.45" end_time="7:15:00" >
</activity>
<leg mode="motorcycle">
</leg>
<activity type="w" x="282732.919" y="2765535.47" end_time="16:20:00" >
</activity>
<leg mode="motorcycle">
</leg>
<activity type="w" x="281885.109" y="2765478.45">
</activity>
</plan>
</person>
<person id="20027">
<plan selected="yes">
<activity type="h" x="279564.53" y="2761578.689" end_time="8:20:00" >
</activity>
<leg mode="motorcycle">
</leg>
<activity type="w" x="281605.26" y="2765287.73" end_time="12:10:00" >
</activity>
<leg mode="motorcycle">
</leg>
<activity type="w" x="280689.539" y="2764528.37" end_time="12:50:00" >
</activity>
<leg mode="motorcycle">
</leg>
<activity type="w" x="281605.26" y="2765287.73" end_time="17:10:00" >
</activity>
<leg mode="motorcycle">
</leg>
<activity type="w" x="279564.53" y="2761578.689">
</activity>
</plan>
</person>
<person id="20028">
<plan selected="yes">
<activity type="h" x="279289.26" y="2764062.029" end_time="11:00:00" >
</activity>
<leg mode="car">
</leg>
<activity type="w" x="270493.95" y="2761089.7" end_time="19:30:00" >
</activity>
<leg mode="car">
</leg>
<activity type="w" x="281372.5" y="2766794.75" end_time="2:00:00" >
</activity>
<leg mode="car">
</leg>
<activity type="w" x="279289.26" y="2764062.029">
</activity>
</plan>
</person>
<person id="20029">
<plan selected="yes">
<activity type="h" x="280498.9" y="2771227.31" end_time="15:30:00" >
</activity>
<leg mode="motorcycle">
</leg>
<activity type="w" x="281690.08" y="2764633.52" end_time="18:20:00" >
</activity>
<leg mode="motorcycle">
</leg>
<activity type="w" x="280498.9" y="2771227.31">
</activity>
</plan>
</person>
<person id="20030">
<plan selected="yes">
<activity type="h" x="279718.479" y="2764483.27" end_time="8:13:00" >
</activity>
<leg mode="motorcycle">
</leg>
<activity type="w" x="281690.08" y="2764633.52" end_time="12:07:00" >
</activity>
<leg mode="walk">
</leg>
<activity type="w" x="281690.08" y="2764633.52" end_time="13:02:00" >
</activity>
<leg mode="walk">
</leg>
<activity type="w" x="281690.08" y="2764633.52" end_time="18:36:00" >
</activity>
<leg mode="motorcycle">
</leg>
<activity type="w" x="279718.479" y="2764483.27">
</activity>
</plan>
</person>
<person id="20031">
<plan selected="yes">
<activity type="h" x="281749.719" y="2763699.75" end_time="9:30:00" >
</activity>
<leg mode="motorcycle">
</leg>
<activity type="w" x="280978.289" y="2765135.649" end_time="21:33:00" >
</activity>
<leg mode="motorcycle">
</leg>
<activity type="w" x="281868.78" y="2763617.319" end_time="22:30:00" >
</activity>
<leg mode="walk">
</leg>
<activity type="w" x="281749.719" y="2763699.75" end_time="22:42:00" >
</activity>
<leg mode="walk">
</leg>
<activity type="w" x="281749.719" y="2763699.75">
</activity>
</plan>
</person>
<person id="20032">
<plan selected="yes">
<activity type="h" x="271189.64" y="2761403.509" end_time="7:50:00" >
</activity>
<leg mode="motorcycle">
</leg>
<activity type="w" x="281099.719" y="2764484.45" end_time="12:10:00" >
</activity>
<leg mode="walk">
</leg>
<activity type="w" x="281522.799" y="2764843" end_time="13:00:00" >
</activity>
<leg mode="walk">
</leg>
<activity type="w" x="281099.719" y="2764484.45" end_time="19:01:00" >
</activity>
<leg mode="motorcycle">
</leg>
<activity type="w" x="271189.64" y="2761403.509">
</activity>
</plan>
</person>
<person id="20033">
<plan selected="yes">
<activity type="h" x="281510.2" y="2760990.98" end_time="8:02:00" >
</activity>
<leg mode="car">
</leg>
<activity type="w" x="282060.109" y="2764006.31" end_time="14:12:00" >
</activity>
<leg mode="car">
</leg>
<activity type="w" x="280623.27" y="2764952.85" end_time="15:20:00" >
</activity>
<leg mode="car">
</leg>
<activity type="w" x="282091.169" y="2764247.279" end_time="18:45:00" >
</activity>
<leg mode="car">
</leg>
<activity type="w" x="281510.2" y="2760990.98">
</activity>
</plan>
</person>
<person id="20034">
<plan selected="yes">
<activity type="h" x="281348.89" y="2767731.77" end_time="8:30:00" >
</activity>
<leg mode="motorcycle">
</leg>
<activity type="w" x="279528.63" y="2764287.759" end_time="12:40:00" >
</activity>
<leg mode="walk">
</leg>
<activity type="w" x="281605.26" y="2765287.73" end_time="13:20:00" >
</activity>
<leg mode="walk">
</leg>
<activity type="w" x="279528.63" y="2764287.759" end_time="18:50:00" >
</activity>
<leg mode="motorcycle">
</leg>
<activity type="w" x="281420.32" y="2767584.149">
</activity>
</plan>
</person>
<person id="20035">
<plan selected="yes">
<activity type="h" x="282129.78" y="2764636.54" end_time="8:10:00" >
</activity>
<leg mode="car">
</leg>
<activity type="w" x="281538.83" y="2764720.77" end_time="12:10:00" >
</activity>
<leg mode="walk">
</leg>
<activity type="w" x="281690.08" y="2764633.52" end_time="13:02:00" >
</activity>
<leg mode="walk">
</leg>
<activity type="w" x="281483.03" y="2764660.779" end_time="18:06:00" >
</activity>
<leg mode="car">
</leg>
<activity type="w" x="282134.06" y="2764282.22">
</activity>
</plan>
</person>
<person id="20036">
<plan selected="yes">
<activity type="h" x="280887.76" y="2765806.99" end_time="9:10:00" >
</activity>
<leg mode="car">
</leg>
<activity type="w" x="281643.929" y="2765119.799" end_time="12:20:00" >
</activity>
<leg mode="walk">
</leg>
<activity type="w" x="281643.929" y="2765119.799" end_time="12:40:00" >
</activity>
<leg mode="walk">
</leg>
<activity type="w" x="281643.929" y="2765119.799" end_time="19:00:00" >
</activity>
<leg mode="car">
</leg>
<activity type="w" x="280854.989" y="2765857.549">
</activity>
</plan>
</person>
<person id="20037">
<plan selected="yes">
<activity type="h" x="281912.62" y="2765355.75" end_time="7:50:00" >
</activity>
<leg mode="motorcycle">
</leg>
<activity type="w" x="279451.28" y="2764713.899" end_time="12:20:00" >
</activity>
<leg mode="motorcycle">
</leg>
<activity type="w" x="279528.63" y="2764287.759" end_time="12:30:00" >
</activity>
<leg mode="motorcycle">
</leg>
<activity type="w" x="279528.63" y="2764287.759" end_time="17:30:00" >
</activity>
<leg mode="motorcycle">
</leg>
<activity type="w" x="281912.62" y="2765355.75">
</activity>
</plan>
</person>
<person id="20038">
<plan selected="yes">
<activity type="h" x="282134.06" y="2764282.22" end_time="8:10:00" >
</activity>
<leg mode="car">
</leg>
<activity type="w" x="278489.64" y="2766855.23" end_time="12:10:00" >
</activity>
<leg mode="walk">
</leg>
<activity type="w" x="278489.64" y="2766855.23" end_time="13:00:00" >
</activity>
<leg mode="walk">
</leg>
<activity type="w" x="278489.64" y="2766855.23" end_time="18:20:00" >
</activity>
<leg mode="car">
</leg>
<activity type="w" x="282129.78" y="2764636.54">
</activity>
</plan>
</person>
<person id="20039">
<plan selected="yes">
<activity type="h" x="281522.799" y="2764843" end_time="9:15:00" >
</activity>
<leg mode="motorcycle">
</leg>
<activity type="w" x="281479.26" y="2765283.169" end_time="12:10:00" >
</activity>
<leg mode="walk">
</leg>
<activity type="w" x="281479.26" y="2765283.169" end_time="13:00:00" >
</activity>
<leg mode="walk">
</leg>
<activity type="w" x="281479.26" y="2765283.169" end_time="19:20:00" >
</activity>
<leg mode="motorcycle">
</leg>
<activity type="w" x="281522.799" y="2764843">
</activity>
</plan>
</person>
<person id="20040">
<plan selected="yes">
<activity type="h" x="280007.71" y="2764473.27" end_time="8:00:00" >
</activity>
<leg mode="motorcycle">
</leg>
<activity type="w" x="281522.799" y="2764843" end_time="12:20:00" >
</activity>
<leg mode="motorcycle">
</leg>
<activity type="w" x="281522.799" y="2764843" end_time="12:30:00" >
</activity>
<leg mode="motorcycle">
</leg>
<activity type="w" x="281522.799" y="2764843" end_time="18:20:00" >
</activity>
<leg mode="motorcycle">
</leg>
<activity type="w" x="280007.71" y="2764473.27">
</activity>
</plan>
</person>
<person id="20041">
<plan selected="yes">
<activity type="h" x="279170.349" y="2764448.79" end_time="7:50:00" >
</activity>
<leg mode="motorcycle">
</leg>
<activity type="w" x="279880.039" y="2765210.839" end_time="12:10:00" >
</activity>
<leg mode="walk">
</leg>
<activity type="w" x="279946.34" y="2764858.52" end_time="12:55:00" >
</activity>
<leg mode="walk">
</leg>
<activity type="w" x="279880.039" y="2765210.839" end_time="17:40:00" >
</activity>
<leg mode="motorcycle">
</leg>
<activity type="w" x="279170.349" y="2764448.79">
</activity>
</plan>
</person>
<person id="20042">
<plan selected="yes">
<activity type="h" x="280650.56" y="2758096.25" end_time="8:30:00" >
</activity>
<leg mode="car">
</leg>
<activity type="w" x="281420.32" y="2767584.149" end_time="13:40:00" >
</activity>
<leg mode="car">
</leg>
<activity type="w" x="280343.219" y="2764357.89" end_time="14:50:00" >
</activity>
<leg mode="car">
</leg>
<activity type="w" x="281180.719" y="2767905.919" end_time="18:30:00" >
</activity>
<leg mode="car">
</leg>
<activity type="w" x="280638.409" y="2758107.02">
</activity>
</plan>
</person>
<person id="20043">
<plan selected="yes">
<activity type="h" x="279604.429" y="2764967.46" end_time="8:00:00" >
</activity>
<leg mode="motorcycle">
</leg>
<activity type="w" x="280823.57" y="2768159.5" end_time="12:10:00" >
</activity>
<leg mode="walk">
</leg>
<activity type="w" x="280823.57" y="2768159.5" end_time="12:30:00" >
</activity>
<leg mode="walk">
</leg>
<activity type="w" x="280823.57" y="2768159.5" end_time="18:00:00" >
</activity>
<leg mode="motorcycle">
</leg>
<activity type="w" x="279604.429" y="2764967.46">
</activity>
</plan>
</person>
<person id="20044">
<plan selected="yes">
<activity type="h" x="282274.739" y="2765707.89" end_time="8:10:00" >
</activity>
<leg mode="motorcycle">
</leg>
<activity type="w" x="280389.95" y="2767674.839" end_time="17:20:00" >
</activity>
<leg mode="motorcycle">
</leg>
<activity type="w" x="281099.719" y="2764484.45" end_time="18:40:00" >
</activity>
<leg mode="motorcycle">
</leg>
<activity type="w" x="282296.979" y="2765658.939">
</activity>
</plan>
</person>
<person id="20045">
<plan selected="yes">
<activity type="h" x="279799.09" y="2768064.22" end_time="7:55:00" >
</activity>
<leg mode="pt">
</leg>
<activity type="w" x="281188.789" y="2764953.6" end_time="12:05:00" >
</activity>
<leg mode="walk">
</leg>
<activity type="w" x="281188.789" y="2764953.6" end_time="13:20:00" >
</activity>
<leg mode="walk">
</leg>
<activity type="w" x="281188.789" y="2764953.6" end_time="18:10:00" >
</activity>
<leg mode="pt">
</leg>
<activity type="w" x="279804" y="2768259.16">
</activity>
</plan>
</person>
<person id="20046">
<plan selected="yes">
<activity type="h" x="280671.859" y="2765423.21" end_time="8:12:00" >
</activity>
<leg mode="motorcycle">
</leg>
<activity type="w" x="281367.109" y="2765716.109" end_time="12:05:00" >
</activity>
<leg mode="walk">
</leg>
<activity type="w" x="280887.76" y="2765806.99" end_time="13:00:00" >
</activity>
<leg mode="walk">
</leg>
<activity type="w" x="281367.109" y="2765716.109" end_time="18:40:00" >
</activity>
<leg mode="motorcycle">
</leg>
<activity type="w" x="280384.95" y="2765326.62">
</activity>
</plan>
</person>
<person id="20047">
<plan selected="yes">
<activity type="h" x="279839.37" y="2767710.259" end_time="8:05:00" >
</activity>
<leg mode="pt">
</leg>
<activity type="w" x="276745.89" y="2761635.899" end_time="12:10:00" >
</activity>
<leg mode="walk">
</leg>
<activity type="w" x="276541.239" y="2761889.23" end_time="13:20:00" >
</activity>
<leg mode="walk">
</leg>
<activity type="w" x="276745.89" y="2761635.899" end_time="17:00:00" >
</activity>
<leg mode="pt">
</leg>
<activity type="w" x="279839.37" y="2767710.259">
</activity>
</plan>
</person>
<person id="20048">
<plan selected="yes">
<activity type="h" x="280569.289" y="2765501.29" end_time="8:15:00" >
</activity>
<leg mode="motorcycle">
</leg>
<activity type="w" x="280823.57" y="2768159.5" end_time="12:10:00" >
</activity>
<leg mode="walk">
</leg>
<activity type="w" x="280823.57" y="2768159.5" end_time="12:30:00" >
</activity>
<leg mode="walk">
</leg>
<activity type="w" x="280534.229" y="2768348.089" end_time="18:00:00" >
</activity>
<leg mode="motorcycle">
</leg>
<activity type="w" x="280249.7" y="2765508.31">
</activity>
</plan>
</person>
<person id="20049">
<plan selected="yes">
<activity type="h" x="278489.64" y="2766855.23" end_time="8:30:00" >
</activity>
<leg mode="motorcycle">
</leg>
<activity type="w" x="281188.789" y="2764953.6" end_time="12:15:00" >
</activity>
<leg mode="walk">
</leg>
<activity type="w" x="281483.03" y="2764660.779" end_time="13:05:00" >
</activity>
<leg mode="walk">
</leg>
<activity type="w" x="281188.789" y="2764953.6" end_time="17:50:00" >
</activity>
<leg mode="motorcycle">
</leg>
<activity type="w" x="278489.64" y="2766855.23">
</activity>
</plan>
</person>
<person id="20050">
<plan selected="yes">
<activity type="h" x="278078.44" y="2772005.649" end_time="8:20:00" >
</activity>
<leg mode="car">
</leg>
<activity type="w" x="282267.83" y="2767502.41" end_time="12:40:00" >
</activity>
<leg mode="walk">
</leg>
<activity type="w" x="282267.83" y="2767502.41" end_time="13:20:00" >
</activity>
<leg mode="walk">
</leg>
<activity type="w" x="282267.83" y="2767502.41" end_time="18:20:00" >
</activity>
<leg mode="car">
</leg>
<activity type="w" x="278078.44" y="2772005.649">
</activity>
</plan>
</person>
<person id="20051">
<plan selected="yes">
<activity type="h" x="279143.09" y="2764768.93" end_time="7:40:00" >
</activity>
<leg mode="motorcycle">
</leg>
<activity type="w" x="279946.34" y="2764858.52" end_time="12:20:00" >
</activity>
<leg mode="walk">
</leg>
<activity type="w" x="279772.9" y="2765099.359" end_time="13:10:00" >
</activity>
<leg mode="walk">
</leg>
<activity type="w" x="279946.34" y="2764858.52" end_time="17:30:00" >
</activity>
<leg mode="motorcycle">
</leg>
<activity type="w" x="279143.09" y="2764768.93">
</activity>
</plan>
</person>
<person id="20052">
<plan selected="yes">
<activity type="h" x="280650.56" y="2758096.25" end_time="8:30:00" >
</activity>
<leg mode="car">
</leg>
<activity type="w" x="280069.659" y="2764797.45" end_time="13:40:00" >
</activity>
<leg mode="car">
</leg>
<activity type="w" x="279674.299" y="2763225.52" end_time="14:50:00" >
</activity>
<leg mode="car">
</leg>
<activity type="w" x="280069.659" y="2764797.45" end_time="18:30:00" >
</activity>
<leg mode="car">
</leg>
<activity type="w" x="280638.409" y="2758107.02">
</activity>
</plan>
</person>
<person id="20053">
<plan selected="yes">
<activity type="h" x="282738.739" y="2762905.96" end_time="8:10:00" >
</activity>
<leg mode="motorcycle">
</leg>
<activity type="w" x="281505.45" y="2765052.25" end_time="21:33:00" >
</activity>
<leg mode="motorcycle">
</leg>
<activity type="w" x="282660.409" y="2763035.339" end_time="22:30:00" >
</activity>
<leg mode="walk">
</leg>
<activity type="w" x="282660.409" y="2763035.339" end_time="22:42:00" >
</activity>
<leg mode="walk">
</leg>
<activity type="w" x="282660.409" y="2763035.339">
</activity>
</plan>
</person>
<person id="20054">
<plan selected="yes">
<activity type="h" x="280023.109" y="2761426.41" end_time="10:10:00" >
</activity>
<leg mode="walk">
</leg>
<activity type="w" x="280023.109" y="2761426.41" end_time="12:40:00" >
</activity>
<leg mode="walk">
</leg>
<activity type="w" x="280023.109" y="2761426.41">
</activity>
</plan>
</person>
<person id="20056">
<plan selected="yes">
<activity type="h" x="280274.38" y="2767138.18" end_time="8:20:00" >
</activity>
<leg mode="motorcycle">
</leg>
<activity type="w" x="280534.229" y="2768348.089" end_time="12:05:00" >
</activity>
<leg mode="motorcycle">
</leg>
<activity type="w" x="280274.38" y="2767138.18" end_time="13:20:00" >
</activity>
<leg mode="motorcycle">
</leg>
<activity type="w" x="280823.57" y="2768159.5" end_time="17:30:00" >
</activity>
<leg mode="motorcycle">
</leg>
<activity type="w" x="280274.38" y="2767138.18">
</activity>
</plan>
</person>
<person id="20057">
<plan selected="yes">
<activity type="h" x="279111.669" y="2766826.35" end_time="11:20:00" >
</activity>
<leg mode="walk">
</leg>
<activity type="w" x="279247.159" y="2768152.5" end_time="13:05:00" >
</activity>
<leg mode="walk">
</leg>
<activity type="w" x="279111.669" y="2766826.35">
</activity>
</plan>
</person>
<person id="20058">
<plan selected="yes">
<activity type="h" x="282519.039" y="2766646.33" end_time="8:10:00" >
</activity>
<leg mode="car">
</leg>
<activity type="w" x="282095.45" y="2764826" end_time="12:15:00" >
</activity>
<leg mode="walk">
</leg>
<activity type="w" x="282095.45" y="2764826" end_time="13:02:00" >
</activity>
<leg mode="walk">
</leg>
<activity type="w" x="282095.45" y="2764826" end_time="19:02:00" >
</activity>
<leg mode="car">
</leg>
<activity type="w" x="282519.039" y="2766646.33">
</activity>
</plan>
</person>
<person id="20059">
<plan selected="yes">
<activity type="h" x="282274.739" y="2765707.89" end_time="7:30:00" >
</activity>
<leg mode="car">
</leg>
<activity type="w" x="273855.46" y="2761881.319" end_time="12:05:00" >
</activity>
<leg mode="motorcycle">
</leg>
<activity type="w" x="273855.46" y="2761881.319" end_time="12:45:00" >
</activity>
<leg mode="motorcycle">
</leg>
<activity type="w" x="273855.46" y="2761881.319" end_time="18:02:00" >
</activity>
<leg mode="car">
</leg>
<activity type="w" x="282274.739" y="2765707.89">
</activity>
</plan>
</person>
<person id="20061">
<plan selected="yes">
<activity type="h" x="281088.25" y="2765906.759" end_time="9:30:00" >
</activity>
<leg mode="motorcycle">
</leg>
<activity type="w" x="281123.62" y="2765753.25" end_time="15:30:00" >
</activity>
<leg mode="motorcycle">
</leg>
<activity type="w" x="281123.62" y="2765753.25" end_time="15:39:00" >
</activity>
<leg mode="motorcycle">
</leg>
<activity type="w" x="281108.039" y="2766321.299">
</activity>
</plan>
</person>
<person id="20062">
<plan selected="yes">
<activity type="h" x="281538.539" y="2767427.12" end_time="8:20:00" >
</activity>
<leg mode="pt">
</leg>
<activity type="w" x="279130.75" y="2759728.529" end_time="12:30:00" >
</activity>
<leg mode="walk">
</leg>
<activity type="w" x="279130.75" y="2759728.529" end_time="12:40:00" >
</activity>
<leg mode="walk">
</leg>
<activity type="w" x="279130.75" y="2759728.529" end_time="17:40:00" >
</activity>
<leg mode="pt">
</leg>
<activity type="w" x="281538.539" y="2767427.12">
</activity>
</plan>
</person>
<person id="20063">
<plan selected="yes">
<activity type="h" x="280777.03" y="2765917.18" end_time="8:10:00" >
</activity>
<leg mode="motorcycle">
</leg>
<activity type="w" x="282274.739" y="2765707.89" end_time="12:40:00" >
</activity>
<leg mode="walk">
</leg>
<activity type="w" x="282290.409" y="2765501.97" end_time="13:20:00" >
</activity>
<leg mode="walk">
</leg>
<activity type="w" x="282274.739" y="2765707.89" end_time="19:00:00" >
</activity>
<leg mode="motorcycle">
</leg>
<activity type="w" x="280854.989" y="2765857.549">
</activity>
</plan>
</person>
<person id="20066">
<plan selected="yes">
<activity type="h" x="272315.71" y="2761487.7" end_time="8:30:00" >
</activity>
<leg mode="car">
</leg>
<activity type="w" x="279946.34" y="2764858.52" end_time="12:30:00" >
</activity>
<leg mode="walk">
</leg>
<activity type="w" x="279788.9" y="2764867.14" end_time="13:10:00" >
</activity>
<leg mode="walk">
</leg>
<activity type="w" x="279772.9" y="2765099.359" end_time="19:20:00" >
</activity>
<leg mode="car">
</leg>
<activity type="w" x="272315.71" y="2761487.7">
</activity>
</plan>
</person>
<person id="20068">
<plan selected="yes">
<activity type="h" x="278950.9" y="2765156.52" end_time="8:20:00" >
</activity>
<leg mode="motorcycle">